%chk=OPTCapsaicin.chk
%nprocshared=2
%mem=1000MB
# opt b3lyp/6-31g(d) pop=(nbo,savenbo) geom=connectivity scf=maxcycle=1000

OPT Capsaicin

0 1
 C                 -1.00710000    1.87100000    0.62900000
 C                  0.19580000    1.18660000   -0.00160000
 C                  1.51980000    1.94750000    0.17170000
 C                  2.69890000    1.20320000   -0.47670000
 C                  4.02140000    1.96740000   -0.30810000
 C                  5.16500000    1.21670000   -0.94420000
 C                  6.21210000    0.72840000   -0.26180000
 C                  7.35670000   -0.03080000   -0.89420000
 O                 -0.94770000    2.91970000    1.22150000
 N                 -2.17960000    1.18690000    0.46750000
 C                 -3.45360000    1.66390000    1.00310000
 C                 -4.51620000    0.66170000    0.62150000
 C                 -5.60660000    1.00920000   -0.08010000
 C                 -6.57480000    0.14710000   -0.45510000
 O                 -7.62900000    0.68430000   -1.16070000
 C                 -8.79250000   -0.06660000   -1.40770000
 C                 -6.42880000   -1.14480000   -0.07550000
 O                 -7.32790000   -2.12110000   -0.37560000
 C                 -5.33650000   -1.50320000    0.62350000
 C                 -4.38740000   -0.62580000    0.97190000
 C                  8.67500000    0.72650000   -0.67230000
 C                  7.42760000   -1.45130000   -0.31330000
 H                  0.28970000    0.17300000    0.45550000
 H                 -0.01610000    1.05600000   -1.08930000
 H                  1.72840000    2.08630000    1.25950000
 H                  1.42880000    2.96070000   -0.28800000
 H                  2.79780000    0.19170000   -0.01480000
 H                  2.48960000    1.05610000   -1.56320000
 H                  4.21840000    2.13400000    0.77640000
 H                  3.94980000    2.97170000   -0.78810000
 H                  5.11180000    1.06690000   -2.03530000
 H                  6.26140000    0.87570000    0.82960000
 H                  7.18670000   -0.11520000   -1.99650000
 H                 -2.18050000    0.29720000   -0.03140000
 H                 -3.67580000    2.67580000    0.59430000
 H                 -3.40090000    1.73460000    2.11430000
 H                 -5.72010000    2.06740000   -0.37240000
 H                 -9.52840000    0.60710000   -1.90180000
 H                 -8.57810000   -0.89790000   -2.11430000
 H                 -9.24040000   -0.41550000   -0.45110000
 H                 -7.01930000   -2.97170000   -0.02450000
 H                 -5.21450000   -2.55800000    0.92460000
 H                 -3.50990000   -0.96360000    1.54730000
 H                  9.52840000    0.19570000   -1.15300000
 H                  8.90740000    0.82830000    0.41220000
 H                  8.62680000    1.75050000   -1.10910000
 H                  6.47540000   -2.00320000   -0.48810000
 H                  7.61470000   -1.43230000    0.78450000
 H                  8.24810000   -2.03790000   -0.78630000

 1 2 1.0 9 2.0 10 1.0
 2 3 1.0 23 1.0 24 1.0
 3 4 1.0 25 1.0 26 1.0
 4 5 1.0 27 1.0 28 1.0
 5 6 1.0 29 1.0 30 1.0
 6 7 2.0 31 1.0
 7 8 1.0 32 1.0
 8 21 1.0 22 1.0 33 1.0
 9
 10 11 1.0 34 1.0
 11 12 1.0 35 1.0 36 1.0
 12 13 1.0 20 2.0
 13 14 2.0 37 1.0
 14 15 1.0 17 1.0
 15 16 1.0
 16 38 1.0 39 1.0 40 1.0
 17 18 1.0 19 2.0
 18 41 1.0
 19 20 1.0 42 1.0
 20 43 1.0
 21 44 1.0 45 1.0 46 1.0
 22 47 1.0 48 1.0 49 1.0
 23
 24
 25
 26
 27
 28
 29
 30
 31
 32
 33
 34
 35
 36
 37
 38
 39
 40
 41
 42
 43
 44
 45
 46
 47
 48
 49

H     0
S   3   1.00
      0.1873113696D+02       0.3349460434D-01
      0.2825394365D+01       0.2347269535D+00
      0.6401216923D+00       0.8137573261D+00
S   1   1.00
      0.1612777588D+00       1.0000000
****
C     0
S   6   1.00
      0.3047524880D+04       0.1834737132D-02
      0.4573695180D+03       0.1403732281D-01
      0.1039486850D+03       0.6884262226D-01
      0.2921015530D+02       0.2321844432D+00
      0.9286662960D+01       0.4679413484D+00
      0.3163926960D+01       0.3623119853D+00
SP   3   1.00
      0.7868272350D+01      -0.1193324198D+00       0.6899906659D-01
      0.1881288540D+01      -0.1608541517D+00       0.3164239610D+00
      0.5442492580D+00       0.1143456438D+01       0.7443082909D+00
SP   1   1.00
      0.1687144782D+00       0.1000000000D+01       0.1000000000D+01
D   1   1.00
      0.8000000000D+00       1.0000000
****
N     0
S   6   1.00
      0.4173511460D+04       0.1834772160D-02
      0.6274579110D+03       0.1399462700D-01
      0.1429020930D+03       0.6858655181D-01
      0.4023432930D+02       0.2322408730D+00
      0.1282021290D+02       0.4690699481D+00
      0.4390437010D+01       0.3604551991D+00
SP   3   1.00
      0.1162636186D+02      -0.1149611817D+00       0.6757974388D-01
      0.2716279807D+01      -0.1691174786D+00       0.3239072959D+00
      0.7722183966D+00       0.1145851947D+01       0.7408951398D+00
SP   1   1.00
      0.2120314975D+00       0.1000000000D+01       0.1000000000D+01
D   1   1.00
      0.8000000000D+00       1.0000000
****
O     0
S   6   1.00
      0.5484671660D+04       0.1831074430D-02
      0.8252349460D+03       0.1395017220D-01
      0.1880469580D+03       0.6844507810D-01
      0.5296450000D+02       0.2327143360D+00
      0.1689757040D+02       0.4701928980D+00
      0.5799635340D+01       0.3585208530D+00
SP   3   1.00
      0.1553961625D+02      -0.1107775495D+00       0.7087426823D-01
      0.3599933586D+01      -0.1480262627D+00       0.3397528391D+00
      0.1013761750D+01       0.1130767015D+01       0.7271585773D+00
SP   1   1.00
      0.2700058226D+00       0.1000000000D+01       0.1000000000D+01
D   1   1.00
      0.8000000000D+00       1.0000000
****

--Link1--

%chk=OPTNornorcapsaicin.chk
%nprocshared=2
%mem=1000MB
# opt b3lyp/6-31g(d) pop=(nbo,savenbo) geom=connectivity scf=maxcycle=1000

OPT Nornorcapsaicin

0 1
 C                  0.33090000    1.84700000    0.48090000
 C                  1.50450000    1.20690000   -0.24440000
 C                  2.83600000    1.95480000   -0.07630000
 C                  3.94340000    1.25170000   -0.82200000
 C                  5.01260000    0.69880000   -0.22910000
 C                  6.12040000   -0.01310000   -0.97220000
 C                  7.45720000    0.70680000   -0.73760000
 O                  0.41610000    2.86210000    1.12630000
 N                 -0.84510000    1.16520000    0.33880000
 C                 -2.09370000    1.60380000    0.96020000
 C                 -3.16890000    0.61670000    0.57480000
 C                 -4.28990000    0.99340000   -0.06050000
 C                 -5.27070000    0.14620000   -0.43650000
 O                 -6.35610000    0.71270000   -1.06810000
 C                 -7.52470000   -0.03240000   -1.30830000
 C                 -5.10400000   -1.16250000   -0.13020000
 O                 -6.01190000   -2.12730000   -0.44100000
 C                 -3.98120000   -1.54990000    0.50190000
 C                 -3.02080000   -0.68610000    0.85320000
 C                  6.19330000   -1.48060000   -0.52290000
 H                  1.61800000    0.16530000    0.14060000
 H                  1.24340000    1.14830000   -1.32800000
 H                  3.08620000    2.03230000    1.00750000
 H                  2.75060000    2.99310000   -0.47520000
 H                  3.84220000    1.19470000   -1.91850000
 H                  5.10980000    0.75230000    0.86780000
 H                  5.90590000    0.00290000   -2.06980000
 H                  7.40620000    1.76650000   -1.07860000
 H                  7.73430000    0.70790000    0.34120000
 H                  8.28300000    0.21260000   -1.29870000
 H                 -0.86660000    0.30410000   -0.20760000
 H                 -2.33950000    2.63510000    0.61880000
 H                 -1.98780000    1.61400000    2.06980000
 H                 -4.41930000    2.06440000   -0.29360000
 H                 -8.28300000    0.66120000   -1.73650000
 H                 -7.33450000   -0.82370000   -2.06600000
 H                 -7.93250000   -0.43440000   -0.35460000
 H                 -5.68490000   -2.99310000   -0.14890000
 H                 -3.84260000   -2.61800000    0.74300000
 H                 -2.11780000   -1.04780000    1.37200000
 H                  5.22720000   -2.00430000   -0.70820000
 H                  6.42290000   -1.56180000    0.56390000
 H                  6.98630000   -2.03150000   -1.07850000

 1 2 1.0 8 2.0 9 1.0
 2 3 1.0 21 1.0 22 1.0
 3 4 1.0 23 1.0 24 1.0
 4 5 2.0 25 1.0
 5 6 1.0 26 1.0
 6 7 1.0 20 1.0 27 1.0
 7 28 1.0 29 1.0 30 1.0
 8
 9 10 1.0 31 1.0
 10 11 1.0 32 1.0 33 1.0
 11 12 1.0 19 2.0
 12 13 2.0 34 1.0
 13 14 1.0 16 1.0
 14 15 1.0
 15 35 1.0 36 1.0 37 1.0
 16 17 1.0 18 2.0
 17 38 1.0
 18 19 1.0 39 1.0
 19 40 1.0
 20 41 1.0 42 1.0 43 1.0
 21
 22
 23
 24
 25
 26
 27
 28
 29
 30
 31
 32
 33
 34
 35
 36
 37
 38
 39
 40
 41
 42
 43

H     0
S   3   1.00
      0.1873113696D+02       0.3349460434D-01
      0.2825394365D+01       0.2347269535D+00
      0.6401216923D+00       0.8137573261D+00
S   1   1.00
      0.1612777588D+00       1.0000000
****
C     0
S   6   1.00
      0.3047524880D+04       0.1834737132D-02
      0.4573695180D+03       0.1403732281D-01
      0.1039486850D+03       0.6884262226D-01
      0.2921015530D+02       0.2321844432D+00
      0.9286662960D+01       0.4679413484D+00
      0.3163926960D+01       0.3623119853D+00
SP   3   1.00
      0.7868272350D+01      -0.1193324198D+00       0.6899906659D-01
      0.1881288540D+01      -0.1608541517D+00       0.3164239610D+00
      0.5442492580D+00       0.1143456438D+01       0.7443082909D+00
SP   1   1.00
      0.1687144782D+00       0.1000000000D+01       0.1000000000D+01
D   1   1.00
      0.8000000000D+00       1.0000000
****
N     0
S   6   1.00
      0.4173511460D+04       0.1834772160D-02
      0.6274579110D+03       0.1399462700D-01
      0.1429020930D+03       0.6858655181D-01
      0.4023432930D+02       0.2322408730D+00
      0.1282021290D+02       0.4690699481D+00
      0.4390437010D+01       0.3604551991D+00
SP   3   1.00
      0.1162636186D+02      -0.1149611817D+00       0.6757974388D-01
      0.2716279807D+01      -0.1691174786D+00       0.3239072959D+00
      0.7722183966D+00       0.1145851947D+01       0.7408951398D+00
SP   1   1.00
      0.2120314975D+00       0.1000000000D+01       0.1000000000D+01
D   1   1.00
      0.8000000000D+00       1.0000000
****
O     0
S   6   1.00
      0.5484671660D+04       0.1831074430D-02
      0.8252349460D+03       0.1395017220D-01
      0.1880469580D+03       0.6844507810D-01
      0.5296450000D+02       0.2327143360D+00
      0.1689757040D+02       0.4701928980D+00
      0.5799635340D+01       0.3585208530D+00
SP   3   1.00
      0.1553961625D+02      -0.1107775495D+00       0.7087426823D-01
      0.3599933586D+01      -0.1480262627D+00       0.3397528391D+00
      0.1013761750D+01       0.1130767015D+01       0.7271585773D+00
SP   1   1.00
      0.2700058226D+00       0.1000000000D+01       0.1000000000D+01
D   1   1.00
      0.8000000000D+00       1.0000000
****

--Link1--

%chk=OPTHomodihydrocapsaicin.chk
%nprocshared=2
%mem=1000MB
# opt b3lyp/6-31g(d) pop=(nbo,savenbo) geom=connectivity scf=maxcycle=1000

OPT Homodihydrocapsaicin

0 1
 C                 -1.96220000    1.72380000   -0.37670000
 C                 -0.74570000    0.83260000   -0.17960000
 C                  0.59910000    1.57430000   -0.23900000
 C                  1.78970000    0.61970000   -0.05020000
 C                  3.13600000    1.35830000   -0.12630000
 C                  4.32750000    0.40370000    0.05570000
 C                  5.67450000    1.14080000   -0.03550000
 C                  6.86520000    0.18690000    0.15610000
 O                 -1.90110000    2.91920000   -0.52440000
 N                 -3.14950000    1.04630000   -0.37500000
 C                 -4.43900000    1.70980000   -0.56130000
 C                 -5.51090000    0.64700000   -0.53520000
 C                 -6.54010000    0.69140000    0.32550000
 C                 -7.51330000   -0.24100000    0.39400000
 O                 -8.49970000   -0.02480000    1.33110000
 C                 -9.67670000   -0.79510000    1.33410000
 C                 -7.44070000   -1.27160000   -0.48180000
 O                 -8.35430000   -2.27880000   -0.53270000
 C                 -6.40990000   -1.32710000   -1.34460000
 C                 -5.45320000   -0.39140000   -1.38100000
 C                  8.24190000    0.84750000   -0.05900000
 C                  9.35450000   -0.21500000    0.00250000
 C                  8.52750000    1.95870000    0.96490000
 H                 -0.84820000    0.32860000    0.81060000
 H                 -0.76740000    0.04600000   -0.97080000
 H                  0.62780000    2.35800000    0.55520000
 H                  0.69460000    2.08780000   -1.22560000
 H                  1.70220000    0.10990000    0.93870000
 H                  1.75790000   -0.17080000   -0.83730000
 H                  3.17000000    2.14750000    0.66180000
 H                  3.22110000    1.86970000   -1.11460000
 H                  4.24870000   -0.10150000    1.04770000
 H                  4.28570000   -0.39000000   -0.72760000
 H                  5.69740000    1.93850000    0.74310000
 H                  5.75540000    1.63830000   -1.03100000
 H                  6.82350000   -0.25880000    1.17780000
 H                  6.75830000   -0.65410000   -0.57050000
 H                 -3.15240000    0.03310000   -0.25720000
 H                 -4.46610000    2.22890000   -1.54750000
 H                 -4.58800000    2.46680000    0.24190000
 H                 -6.59530000    1.54350000    1.02470000
 H                -10.35500000   -0.36910000    2.10740000
 H                -10.19250000   -0.72050000    0.35130000
 H                 -9.45610000   -1.84420000    1.62900000
 H                 -8.10000000   -2.91920000   -1.21610000
 H                 -6.34710000   -2.17220000   -2.05170000
 H                 -4.62820000   -0.47610000   -2.10740000
 H                  8.25990000    1.30080000   -1.08250000
 H                 10.35500000    0.23480000   -0.19130000
 H                  9.38860000   -0.70280000    1.00310000
 H                  9.19850000   -1.01150000   -0.76040000
 H                  9.54880000    2.38070000    0.82470000
 H                  7.81620000    2.80860000    0.86570000
 H                  8.46030000    1.57140000    2.00680000

 1 2 1.0 9 2.0 10 1.0
 2 3 1.0 24 1.0 25 1.0
 3 4 1.0 26 1.0 27 1.0
 4 5 1.0 28 1.0 29 1.0
 5 6 1.0 30 1.0 31 1.0
 6 7 1.0 32 1.0 33 1.0
 7 8 1.0 34 1.0 35 1.0
 8 21 1.0 36 1.0 37 1.0
 9
 10 11 1.0 38 1.0
 11 12 1.0 39 1.0 40 1.0
 12 13 1.0 20 2.0
 13 14 2.0 41 1.0
 14 15 1.0 17 1.0
 15 16 1.0
 16 42 1.0 43 1.0 44 1.0
 17 18 1.0 19 2.0
 18 45 1.0
 19 20 1.0 46 1.0
 20 47 1.0
 21 22 1.0 23 1.0 48 1.0
 22 49 1.0 50 1.0 51 1.0
 23 52 1.0 53 1.0 54 1.0
 24
 25
 26
 27
 28
 29
 30
 31
 32
 33
 34
 35
 36
 37
 38
 39
 40
 41
 42
 43
 44
 45
 46
 47
 48
 49
 50
 51
 52
 53
 54

H     0
S   3   1.00
      0.1873113696D+02       0.3349460434D-01
      0.2825394365D+01       0.2347269535D+00
      0.6401216923D+00       0.8137573261D+00
S   1   1.00
      0.1612777588D+00       1.0000000
****
C     0
S   6   1.00
      0.3047524880D+04       0.1834737132D-02
      0.4573695180D+03       0.1403732281D-01
      0.1039486850D+03       0.6884262226D-01
      0.2921015530D+02       0.2321844432D+00
      0.9286662960D+01       0.4679413484D+00
      0.3163926960D+01       0.3623119853D+00
SP   3   1.00
      0.7868272350D+01      -0.1193324198D+00       0.6899906659D-01
      0.1881288540D+01      -0.1608541517D+00       0.3164239610D+00
      0.5442492580D+00       0.1143456438D+01       0.7443082909D+00
SP   1   1.00
      0.1687144782D+00       0.1000000000D+01       0.1000000000D+01
D   1   1.00
      0.8000000000D+00       1.0000000
****
N     0
S   6   1.00
      0.4173511460D+04       0.1834772160D-02
      0.6274579110D+03       0.1399462700D-01
      0.1429020930D+03       0.6858655181D-01
      0.4023432930D+02       0.2322408730D+00
      0.1282021290D+02       0.4690699481D+00
      0.4390437010D+01       0.3604551991D+00
SP   3   1.00
      0.1162636186D+02      -0.1149611817D+00       0.6757974388D-01
      0.2716279807D+01      -0.1691174786D+00       0.3239072959D+00
      0.7722183966D+00       0.1145851947D+01       0.7408951398D+00
SP   1   1.00
      0.2120314975D+00       0.1000000000D+01       0.1000000000D+01
D   1   1.00
      0.8000000000D+00       1.0000000
****
O     0
S   6   1.00
      0.5484671660D+04       0.1831074430D-02
      0.8252349460D+03       0.1395017220D-01
      0.1880469580D+03       0.6844507810D-01
      0.5296450000D+02       0.2327143360D+00
      0.1689757040D+02       0.4701928980D+00
      0.5799635340D+01       0.3585208530D+00
SP   3   1.00
      0.1553961625D+02      -0.1107775495D+00       0.7087426823D-01
      0.3599933586D+01      -0.1480262627D+00       0.3397528391D+00
      0.1013761750D+01       0.1130767015D+01       0.7271585773D+00
SP   1   1.00
      0.2700058226D+00       0.1000000000D+01       0.1000000000D+01
D   1   1.00
      0.8000000000D+00       1.0000000
****