%chk=OPTNorcapsaicin.chk
%nprocshared=2
%mem=1000MB
# opt b3lyp/6-31g(d) pop=(nbo,savenbo) geom=connectivity scf=maxcycle=1000

OPT Norcapsaicin

0 1
 C                 -0.44760000    0.77550000    0.93490000
 C                  0.67830000   -0.05920000    0.34420000
 C                  2.08870000    0.45900000    0.66730000
 C                  3.18030000   -0.43240000    0.05410000
 C                  4.55620000    0.08690000    0.39100000
 C                  5.43420000    0.53080000   -0.52130000
 C                  6.81010000    1.06030000   -0.18480000
 O                 -0.27140000    1.78180000    1.57570000
 N                 -1.69560000    0.28120000    0.67660000
 C                 -2.91660000    0.92430000    1.15950000
 C                 -4.08660000    0.08560000    0.70490000
 C                 -5.07710000    0.58900000   -0.04860000
 C                 -6.13420000   -0.12530000   -0.48870000
 O                 -7.06200000    0.56060000   -1.24150000
 C                 -8.30230000   -0.01840000   -1.56550000
 C                 -6.19180000   -1.42810000   -0.12270000
 O                 -7.20060000   -2.26580000   -0.48640000
 C                 -5.20080000   -1.94230000    0.62800000
 C                 -4.15900000   -1.21010000    1.04070000
 C                  7.88510000    0.20660000   -0.87470000
 C                  6.91930000    2.53500000   -0.60150000
 H                  0.57130000   -1.10020000    0.73160000
 H                  0.53780000   -0.08710000   -0.76240000
 H                  2.22250000    0.49740000    1.77520000
 H                  2.20390000    1.49800000    0.27490000
 H                  3.09300000   -1.47330000    0.44550000
 H                  3.04080000   -0.48350000   -1.05070000
 H                  4.83150000    0.09950000    1.45860000
 H                  5.15560000    0.52290000   -1.58780000
 H                  6.97520000    0.99940000    0.91970000
 H                 -1.79630000   -0.58030000    0.13980000
 H                 -2.97360000    1.96320000    0.76200000
 H                 -2.91280000    0.97100000    2.27320000
 H                 -5.02470000    1.65490000   -0.32950000
 H                 -8.90810000    0.75590000   -2.08810000
 H                 -8.16520000   -0.86490000   -2.27320000
 H                 -8.84850000   -0.31000000   -0.64130000
 H                 -7.03380000   -3.15420000   -0.13310000
 H                 -5.24440000   -3.00630000    0.91800000
 H                 -3.37040000   -1.67290000    1.65660000
 H                  7.81270000   -0.85970000   -0.55930000
 H                  7.78310000    0.24270000   -1.98330000
 H                  8.90810000    0.56470000   -0.61720000
 H                  6.14820000    3.15420000   -0.08790000
 H                  6.78020000    2.65810000   -1.69980000
 H                  7.91740000    2.95370000   -0.33770000

 1 2 1.0 8 2.0 9 1.0
 2 3 1.0 22 1.0 23 1.0
 3 4 1.0 24 1.0 25 1.0
 4 5 1.0 26 1.0 27 1.0
 5 6 2.0 28 1.0
 6 7 1.0 29 1.0
 7 20 1.0 21 1.0 30 1.0
 8
 9 10 1.0 31 1.0
 10 11 1.0 32 1.0 33 1.0
 11 12 1.0 19 2.0
 12 13 2.0 34 1.0
 13 14 1.0 16 1.0
 14 15 1.0
 15 35 1.0 36 1.0 37 1.0
 16 17 1.0 18 2.0
 17 38 1.0
 18 19 1.0 39 1.0
 19 40 1.0
 20 41 1.0 42 1.0 43 1.0
 21 44 1.0 45 1.0 46 1.0
 22
 23
 24
 25
 26
 27
 28
 29
 30
 31
 32
 33
 34
 35
 36
 37
 38
 39
 40
 41
 42
 43
 44
 45
 46

H     0
S   3   1.00
      0.1873113696D+02       0.3349460434D-01
      0.2825394365D+01       0.2347269535D+00
      0.6401216923D+00       0.8137573261D+00
S   1   1.00
      0.1612777588D+00       1.0000000
****
C     0
S   6   1.00
      0.3047524880D+04       0.1834737132D-02
      0.4573695180D+03       0.1403732281D-01
      0.1039486850D+03       0.6884262226D-01
      0.2921015530D+02       0.2321844432D+00
      0.9286662960D+01       0.4679413484D+00
      0.3163926960D+01       0.3623119853D+00
SP   3   1.00
      0.7868272350D+01      -0.1193324198D+00       0.6899906659D-01
      0.1881288540D+01      -0.1608541517D+00       0.3164239610D+00
      0.5442492580D+00       0.1143456438D+01       0.7443082909D+00
SP   1   1.00
      0.1687144782D+00       0.1000000000D+01       0.1000000000D+01
D   1   1.00
      0.8000000000D+00       1.0000000
****
N     0
S   6   1.00
      0.4173511460D+04       0.1834772160D-02
      0.6274579110D+03       0.1399462700D-01
      0.1429020930D+03       0.6858655181D-01
      0.4023432930D+02       0.2322408730D+00
      0.1282021290D+02       0.4690699481D+00
      0.4390437010D+01       0.3604551991D+00
SP   3   1.00
      0.1162636186D+02      -0.1149611817D+00       0.6757974388D-01
      0.2716279807D+01      -0.1691174786D+00       0.3239072959D+00
      0.7722183966D+00       0.1145851947D+01       0.7408951398D+00
SP   1   1.00
      0.2120314975D+00       0.1000000000D+01       0.1000000000D+01
D   1   1.00
      0.8000000000D+00       1.0000000
****
O     0
S   6   1.00
      0.5484671660D+04       0.1831074430D-02
      0.8252349460D+03       0.1395017220D-01
      0.1880469580D+03       0.6844507810D-01
      0.5296450000D+02       0.2327143360D+00
      0.1689757040D+02       0.4701928980D+00
      0.5799635340D+01       0.3585208530D+00
SP   3   1.00
      0.1553961625D+02      -0.1107775495D+00       0.7087426823D-01
      0.3599933586D+01      -0.1480262627D+00       0.3397528391D+00
      0.1013761750D+01       0.1130767015D+01       0.7271585773D+00
SP   1   1.00
      0.2700058226D+00       0.1000000000D+01       0.1000000000D+01
D   1   1.00
      0.8000000000D+00       1.0000000
****

--Link1--

%chk=OPTN-Vanillylnonamide.chk
%nprocshared=2
%mem=1000MB
# opt b3lyp/6-31g(d) pop=(nbo,savenbo) geom=connectivity scf=maxcycle=1000

OPT Dihydrocapsaicin

0 1
 C                 -1.18970000    1.71830000    0.73230000
 C                 -0.01560000    0.95050000    0.14480000
 C                  1.35500000    1.59850000    0.39670000
 C                  2.50100000    0.76970000   -0.20700000
 C                  3.87370000    1.41170000    0.05320000
 C                  5.02120000    0.58100000   -0.54600000
 C                  6.39410000    1.21550000   -0.26840000
 C                  7.57240000    0.49200000   -0.95100000
 O                 -1.07940000    2.76410000    1.32260000
 N                 -2.39960000    1.11380000    0.53410000
 C                 -3.65570000    1.67810000    1.02580000
 C                 -4.76670000    0.73140000    0.64040000
 C                 -5.82280000    1.12810000   -0.08710000
 C                 -6.83190000    0.31600000   -0.46590000
 O                 -7.84140000    0.89990000   -1.19930000
 C                 -9.04460000    0.21490000   -1.44800000
 C                 -6.76730000   -0.97520000   -0.06190000
 O                 -7.71550000   -1.90360000   -0.36250000
 C                 -5.70990000   -1.38280000    0.66320000
 C                 -4.71840000   -0.55490000    1.01450000
 C                  8.87420000    1.28670000   -0.74090000
 C                  7.75410000   -0.94710000   -0.44000000
 H                 -0.02460000   -0.07510000    0.58450000
 H                 -0.18440000    0.85600000   -0.95400000
 H                  1.51870000    1.70310000    1.49600000
 H                  1.36960000    2.62270000   -0.04690000
 H                  2.48460000   -0.25670000    0.23080000
 H                  2.34340000    0.66610000   -1.30690000
 H                  4.03020000    1.51650000    1.15320000
 H                  3.88940000    2.43770000   -0.38550000
 H                  4.98230000   -0.44500000   -0.11140000
 H                  4.87210000    0.48670000   -1.64780000
 H                  6.57040000    1.25240000    0.83240000
 H                  6.36890000    2.27180000   -0.62960000
 H                  7.37180000    0.45070000   -2.05160000
 H                 -2.44400000    0.22330000    0.03860000
 H                 -3.80590000    2.69100000    0.58770000
 H                 -3.62700000    1.77250000    2.13610000
 H                 -5.87050000    2.18580000   -0.39870000
 H                 -9.73260000    0.92150000   -1.96440000
 H                 -8.87180000   -0.64120000   -2.13610000
 H                 -9.52420000   -0.08810000   -0.49100000
 H                 -7.46240000   -2.76410000    0.00820000
 H                 -5.65400000   -2.43740000    0.98420000
 H                 -3.87230000   -0.93210000    1.61210000
 H                  9.73260000    0.80250000   -1.26000000
 H                  9.12880000    1.36110000    0.34080000
 H                  8.78790000    2.32190000   -1.14310000
 H                  6.88080000   -1.59020000   -0.68840000
 H                  7.89430000   -0.96610000    0.66450000
 H                  8.64530000   -1.42810000   -0.90370000

 1 2 1.0 9 2.0 10 1.0
 2 3 1.0 23 1.0 24 1.0
 3 4 1.0 25 1.0 26 1.0
 4 5 1.0 27 1.0 28 1.0
 5 6 1.0 29 1.0 30 1.0
 6 7 1.0 31 1.0 32 1.0
 7 8 1.0 33 1.0 34 1.0
 8 21 1.0 22 1.0 35 1.0
 9
 10 11 1.0 36 1.0
 11 12 1.0 37 1.0 38 1.0
 12 13 1.0 20 2.0
 13 14 2.0 39 1.0
 14 15 1.0 17 1.0
 15 16 1.0
 16 40 1.0 41 1.0 42 1.0
 17 18 1.0 19 2.0
 18 43 1.0
 19 20 1.0 44 1.0
 20 45 1.0
 21 46 1.0 47 1.0 48 1.0
 22 49 1.0 50 1.0 51 1.0
 23
 24
 25
 26
 27
 28
 29
 30
 31
 32
 33
 34
 35
 36
 37
 38
 39
 40
 41
 42
 43
 44
 45
 46
 47
 48
 49
 50
 51

H     0
S   3   1.00
      0.1873113696D+02       0.3349460434D-01
      0.2825394365D+01       0.2347269535D+00
      0.6401216923D+00       0.8137573261D+00
S   1   1.00
      0.1612777588D+00       1.0000000
****
C     0
S   6   1.00
      0.3047524880D+04       0.1834737132D-02
      0.4573695180D+03       0.1403732281D-01
      0.1039486850D+03       0.6884262226D-01
      0.2921015530D+02       0.2321844432D+00
      0.9286662960D+01       0.4679413484D+00
      0.3163926960D+01       0.3623119853D+00
SP   3   1.00
      0.7868272350D+01      -0.1193324198D+00       0.6899906659D-01
      0.1881288540D+01      -0.1608541517D+00       0.3164239610D+00
      0.5442492580D+00       0.1143456438D+01       0.7443082909D+00
SP   1   1.00
      0.1687144782D+00       0.1000000000D+01       0.1000000000D+01
D   1   1.00
      0.8000000000D+00       1.0000000
****
N     0
S   6   1.00
      0.4173511460D+04       0.1834772160D-02
      0.6274579110D+03       0.1399462700D-01
      0.1429020930D+03       0.6858655181D-01
      0.4023432930D+02       0.2322408730D+00
      0.1282021290D+02       0.4690699481D+00
      0.4390437010D+01       0.3604551991D+00
SP   3   1.00
      0.1162636186D+02      -0.1149611817D+00       0.6757974388D-01
      0.2716279807D+01      -0.1691174786D+00       0.3239072959D+00
      0.7722183966D+00       0.1145851947D+01       0.7408951398D+00
SP   1   1.00
      0.2120314975D+00       0.1000000000D+01       0.1000000000D+01
D   1   1.00
      0.8000000000D+00       1.0000000
****
O     0
S   6   1.00
      0.5484671660D+04       0.1831074430D-02
      0.8252349460D+03       0.1395017220D-01
      0.1880469580D+03       0.6844507810D-01
      0.5296450000D+02       0.2327143360D+00
      0.1689757040D+02       0.4701928980D+00
      0.5799635340D+01       0.3585208530D+00
SP   3   1.00
      0.1553961625D+02      -0.1107775495D+00       0.7087426823D-01
      0.3599933586D+01      -0.1480262627D+00       0.3397528391D+00
      0.1013761750D+01       0.1130767015D+01       0.7271585773D+00
SP   1   1.00
      0.2700058226D+00       0.1000000000D+01       0.1000000000D+01
D   1   1.00
      0.8000000000D+00       1.0000000
****

--Link1--

%chk=OPTDihydrocapsaicin.chk
%nprocshared=2
%mem=1000MB
# opt b3lyp/6-31g(d) pop=(nbo,savenbo) geom=connectivity scf=maxcycle=1000

OPT Dihydrocapsaicin

0 1
 C                 -1.18970000    1.71830000    0.73230000
 C                 -0.01560000    0.95050000    0.14480000
 C                  1.35500000    1.59850000    0.39670000
 C                  2.50100000    0.76970000   -0.20700000
 C                  3.87370000    1.41170000    0.05320000
 C                  5.02120000    0.58100000   -0.54600000
 C                  6.39410000    1.21550000   -0.26840000
 C                  7.57240000    0.49200000   -0.95100000
 O                 -1.07940000    2.76410000    1.32260000
 N                 -2.39960000    1.11380000    0.53410000
 C                 -3.65570000    1.67810000    1.02580000
 C                 -4.76670000    0.73140000    0.64040000
 C                 -5.82280000    1.12810000   -0.08710000
 C                 -6.83190000    0.31600000   -0.46590000
 O                 -7.84140000    0.89990000   -1.19930000
 C                 -9.04460000    0.21490000   -1.44800000
 C                 -6.76730000   -0.97520000   -0.06190000
 O                 -7.71550000   -1.90360000   -0.36250000
 C                 -5.70990000   -1.38280000    0.66320000
 C                 -4.71840000   -0.55490000    1.01450000
 C                  8.87420000    1.28670000   -0.74090000
 C                  7.75410000   -0.94710000   -0.44000000
 H                 -0.02460000   -0.07510000    0.58450000
 H                 -0.18440000    0.85600000   -0.95400000
 H                  1.51870000    1.70310000    1.49600000
 H                  1.36960000    2.62270000   -0.04690000
 H                  2.48460000   -0.25670000    0.23080000
 H                  2.34340000    0.66610000   -1.30690000
 H                  4.03020000    1.51650000    1.15320000
 H                  3.88940000    2.43770000   -0.38550000
 H                  4.98230000   -0.44500000   -0.11140000
 H                  4.87210000    0.48670000   -1.64780000
 H                  6.57040000    1.25240000    0.83240000
 H                  6.36890000    2.27180000   -0.62960000
 H                  7.37180000    0.45070000   -2.05160000
 H                 -2.44400000    0.22330000    0.03860000
 H                 -3.80590000    2.69100000    0.58770000
 H                 -3.62700000    1.77250000    2.13610000
 H                 -5.87050000    2.18580000   -0.39870000
 H                 -9.73260000    0.92150000   -1.96440000
 H                 -8.87180000   -0.64120000   -2.13610000
 H                 -9.52420000   -0.08810000   -0.49100000
 H                 -7.46240000   -2.76410000    0.00820000
 H                 -5.65400000   -2.43740000    0.98420000
 H                 -3.87230000   -0.93210000    1.61210000
 H                  9.73260000    0.80250000   -1.26000000
 H                  9.12880000    1.36110000    0.34080000
 H                  8.78790000    2.32190000   -1.14310000
 H                  6.88080000   -1.59020000   -0.68840000
 H                  7.89430000   -0.96610000    0.66450000
 H                  8.64530000   -1.42810000   -0.90370000

 1 2 1.0 9 2.0 10 1.0
 2 3 1.0 23 1.0 24 1.0
 3 4 1.0 25 1.0 26 1.0
 4 5 1.0 27 1.0 28 1.0
 5 6 1.0 29 1.0 30 1.0
 6 7 1.0 31 1.0 32 1.0
 7 8 1.0 33 1.0 34 1.0
 8 21 1.0 22 1.0 35 1.0
 9
 10 11 1.0 36 1.0
 11 12 1.0 37 1.0 38 1.0
 12 13 1.0 20 2.0
 13 14 2.0 39 1.0
 14 15 1.0 17 1.0
 15 16 1.0
 16 40 1.0 41 1.0 42 1.0
 17 18 1.0 19 2.0
 18 43 1.0
 19 20 1.0 44 1.0
 20 45 1.0
 21 46 1.0 47 1.0 48 1.0
 22 49 1.0 50 1.0 51 1.0
 23
 24
 25
 26
 27
 28
 29
 30
 31
 32
 33
 34
 35
 36
 37
 38
 39
 40
 41
 42
 43
 44
 45
 46
 47
 48
 49
 50
 51

H     0
S   3   1.00
      0.1873113696D+02       0.3349460434D-01
      0.2825394365D+01       0.2347269535D+00
      0.6401216923D+00       0.8137573261D+00
S   1   1.00
      0.1612777588D+00       1.0000000
****
C     0
S   6   1.00
      0.3047524880D+04       0.1834737132D-02
      0.4573695180D+03       0.1403732281D-01
      0.1039486850D+03       0.6884262226D-01
      0.2921015530D+02       0.2321844432D+00
      0.9286662960D+01       0.4679413484D+00
      0.3163926960D+01       0.3623119853D+00
SP   3   1.00
      0.7868272350D+01      -0.1193324198D+00       0.6899906659D-01
      0.1881288540D+01      -0.1608541517D+00       0.3164239610D+00
      0.5442492580D+00       0.1143456438D+01       0.7443082909D+00
SP   1   1.00
      0.1687144782D+00       0.1000000000D+01       0.1000000000D+01
D   1   1.00
      0.8000000000D+00       1.0000000
****
N     0
S   6   1.00
      0.4173511460D+04       0.1834772160D-02
      0.6274579110D+03       0.1399462700D-01
      0.1429020930D+03       0.6858655181D-01
      0.4023432930D+02       0.2322408730D+00
      0.1282021290D+02       0.4690699481D+00
      0.4390437010D+01       0.3604551991D+00
SP   3   1.00
      0.1162636186D+02      -0.1149611817D+00       0.6757974388D-01
      0.2716279807D+01      -0.1691174786D+00       0.3239072959D+00
      0.7722183966D+00       0.1145851947D+01       0.7408951398D+00
SP   1   1.00
      0.2120314975D+00       0.1000000000D+01       0.1000000000D+01
D   1   1.00
      0.8000000000D+00       1.0000000
****
O     0
S   6   1.00
      0.5484671660D+04       0.1831074430D-02
      0.8252349460D+03       0.1395017220D-01
      0.1880469580D+03       0.6844507810D-01
      0.5296450000D+02       0.2327143360D+00
      0.1689757040D+02       0.4701928980D+00
      0.5799635340D+01       0.3585208530D+00
SP   3   1.00
      0.1553961625D+02      -0.1107775495D+00       0.7087426823D-01
      0.3599933586D+01      -0.1480262627D+00       0.3397528391D+00
      0.1013761750D+01       0.1130767015D+01       0.7271585773D+00
SP   1   1.00
      0.2700058226D+00       0.1000000000D+01       0.1000000000D+01
D   1   1.00
      0.8000000000D+00       1.0000000
****